testData/tamu2000/pfcases_100_zone2326/Equ_tx2000_hr_5529_mod_v23_zone23_26_pslf.raw
0  100.000 
THIS IS A SYNTHETIC POWER SYSTEM MODEL THAT DOES NOT REPRESE
DATA RESEARCH PROJECT AND CONTAINS NO CEII.
1004,  2,  46.600,  -22.806,  0.000,  0.000,  1,  1.02567,  -35.8105,  'O DONNEL',  230.00,  9
1009,  2,  2.445,  -1.514,  0.000,  0.000,  1,  1.01043,  -32.1987,  'IRAAN 2 ',  13.800,  9
1012,  1,  0.364,  -11.384,  0.000,  0.000,  1,  1.02736,  -46.2773,  'SANDERSO',  115.00,  9
1021,  2,  30.828,  -14.674,  0.000,  0.000,  1,  1.00831,  -29.6649,  'BIG SPRI',  13.800,  9
1023,  2,  28.263,  -3.354,  0.000,  0.000,  1,  1.01000,  -29.2324,  'O DONNEL',  13.800,  9
1026,  2,  29.883,  -9.814,  0.000,  0.000,  1,  1.00549,  -27.5401,  'BIG SPRI',  13.800,  9
1033,  2,  9.879,  -8.971,  0.000,  0.000,  1,  1.00346,  -37.7443,  'MCCAMEY ',  230.00,  9
1035,  2,  39.533,  -11.940,  0.000,  0.000,  1,  1.00368,  -27.0171,  'BIG SPRI',  13.800,  9
1039,  2,  22.042,  -8.406,  0.000,  0.000,  1,  1.00012,  -30.1948,  'FORT STO',  22.000,  9
1042,  2,  42.844,  -5.875,  0.000,  0.000,  1,  1.00000,  -23.7198,  'FORSAN 1',  13.800,  9
1046,  1,  8.343,  -4.009,  0.000,  0.000,  1,  1.03001,  -42.8471,  'OZONA 0 ',  115.00,  9
1048,  2,  51.837,  -8.502,  0.000,  0.000,  1,  1.00000,  -32.0422,  'MONAHANS',  18.000,  9
1049,  2,  32.790,  -2.969,  0.000,  0.000,  1,  1.00000,  -29.1737,  'MONAHANS',  18.000,  9
1053,  2,  32.082,  -9.299,  0.000,  0.000,  1,  1.00754,  -36.3432,  'MONAHANS',  230.00,  9
1057,  2,  64.149,  -14.970,  0.000,  0.000,  1,  1.00562,  -30.0958,  'LENORAH ',  18.000,  9
1063,  2,  56.681,  -5.193,  0.000,  0.000,  1,  1.02068,  -22.5491,  'BIG SPRI',  13.800,  9
1066,  2,  47.019,  -6.789,  0.000,  0.000,  1,  1.00000,  -24.2051,  'BIG SPRI',  13.800,  9
1070,  2,  4.493,  -1.524,  0.000,  0.000,  1,  1.04000,  -31.8731,  'IRAAN 1 ',  13.800,  9
1072,  3,  37.972,  -2.255,  0.000,  0.000,  1,  1.01000,  -37.8357,  'ODESSA 1',  18.000,  9
1073,  2,  25.151,  -2.307,  0.000,  0.000,  1,  1.01000,  -37.4155,  'ODESSA 1',  18.000,  9
1074,  2,  26.279,  -1.075,  0.000,  0.000,  1,  1.01000,  -37.6319,  'ODESSA 1',  18.000,  9
1075,  2,  32.061,  -1.387,  0.000,  0.000,  1,  1.01000,  -38.4377,  'ODESSA 1',  18.000,  9
1076,  2,  66.471,  -4.364,  0.000,  0.000,  1,  1.01000,  -40.0625,  'ODESSA 1',  18.000,  9
1077,  2,  27.043,  -1.343,  0.000,  0.000,  1,  1.01000,  -37.7591,  'ODESSA 1',  18.000,  9
1081,  2,  54.511,  -20.315,  0.000,  0.000,  1,  1.01000,  -37.4878,  'ODESSA 1',  230.00,  9
1082,  2,  30.245,  -21.153,  0.000,  0.000,  1,  1.01885,  -32.4462,  'FORT STO',  115.00,  9
1084,  2,  81.428,  -35.241,  0.000,  0.000,  1,  1.03608,  -35.4201,  'BIG SPRI',  115.00,  9
1088,  2,  38.479,  -4.738,  0.000,  0.000,  1,  1.00000,  -33.3564,  'MCCAMEY ',  115.00,  9
1090,  2,  121.239,  -3.072,  0.000,  0.000,  1,  1.02000,  -41.2562,  'GOLDSMIT',  115.00,  9
2004,  2,  86.740,  -22.890,  0.000,  0.000,  2,  1.02099,  -52.5025,  'SAVOY 2 ',  13.800,  11
2005,  2,  75.318,  -20.097,  0.000,  0.000,  2,  1.02000,  -52.3396,  'SAVOY 3 ',  13.800,  11
2006,  2,  51.915,  -12.751,  0.000,  0.000,  2,  1.02000,  -51.7216,  'SAVOY 4 ',  13.800,  11
2013,  2,  51.221,  -43.450,  0.000,  0.000,  2,  1.03354,  -43.6356,  'PANHANDL',  18.000,  10
2024,  2,  60.117,  -18.090,  0.000,  0.000,  2,  1.02546,  -52.7267,  'PARIS 2 ',  13.800,  11
2057,  3,  147.845,  -79.935,  0.000,  0.000,  2,  0.99000,  -45.3930,  'WICHITA ',  18.000,  11
2062,  2,  69.084,  -23.176,  0.000,  0.000,  2,  1.02000,  -43.4707,  'VERNON 1',  18.000,  10
2071,  2,  14.783,  -7.176,  0.000,  0.000,  2,  1.00301,  -46.1037,  'ARCHER 2',  18.000,  11
2078,  2,  57.478,  -14.341,  0.000,  0.000,  2,  1.02000,  -55.0371,  'MUENSTER',  13.800,  11
2095,  2,  17.375,  -9.515,  0.000,  0.000,  2,  1.02514,  -42.5849,  'PANHANDL',  13.800,  10
2100,  2,  32.723,  -14.358,  0.000,  0.000,  2,  1.02119,  -40.7972,  'RALLS 1 ',  18.000,  10
2103,  2,  113.906,  -22.340,  0.000,  0.000,  2,  1.02446,  -53.3461,  'SHERMAN ',  20.000,  11
2104,  2,  86.705,  -16.849,  0.000,  0.000,  2,  1.02332,  -53.1752,  'SHERMAN ',  20.000,  11
2105,  2,  55.632,  -12.240,  0.000,  0.000,  2,  1.02069,  -52.7521,  'SHERMAN ',  20.000,  11
2115,  2,  40.836,  -13.327,  0.000,  0.000,  2,  1.02248,  -52.1552,  'PARIS 1 ',  13.800,  11
2116,  2,  75.449,  -21.948,  0.000,  0.000,  2,  1.02607,  -52.7176,  'PARIS 1 ',  13.800,  11
2117,  2,  37.313,  -11.791,  0.000,  0.000,  2,  1.02100,  -51.9740,  'PARIS 1 ',  13.800,  11
2118,  2,  35.332,  -11.024,  0.000,  0.000,  2,  1.02008,  -51.8259,  'PARIS 1 ',  13.800,  11
2119,  2,  58.312,  -18.093,  0.000,  0.000,  2,  1.02521,  -52.5855,  'PARIS 1 ',  13.800,  11
2120,  2,  36.450,  -11.437,  0.000,  0.000,  2,  1.02053,  -51.8839,  'PARIS 1 ',  13.800,  11
2123,  2,  34.988,  -20.685,  0.000,  0.000,  2,  1.02451,  -43.6580,  'PANHANDL',  161.00,  10
3001,  1,  0.000,  0.000,  0.000,  0.000,  3,  1.02090,  -68.7692,  'KERRVILL',  230.00,  28
3002,  1,  0.000,  0.000,  0.000,  0.000,  3,  1.01566,  -70.8805,  'KERRVILL',  115.00,  28
3005,  1,  0.000,  0.000,  0.000,  0.000,  3,  1.00485,  -78.8029,  'LEAKEY 0',  115.00,  28
3008,  1,  -0.723,  4.019,  0.000,  0.000,  3,  1.02082,  -49.3194,  'COLEMAN ',  115.00,  27
3009,  1,  0.000,  0.000,  0.000,  0.000,  3,  1.02815,  -47.3233,  'SONORA 0',  115.00,  28
3010,  1,  0.000,  0.000,  0.000,  0.000,  3,  1.01089,  -77.2467,  'CAMP WOO',  115.00,  28
3011,  1,  0.000,  0.000,  0.000,  0.000,  3,  1.00735,  -74.5432,  'LLANO 0 ',  115.00,  28
3012,  1,  0.000,  0.000,  0.000,  0.000,  3,  0.99600,  -75.7638,  'WILLOW C',  115.00,  28
3014,  1,  0.000,  0.000,  0.000,  0.000,  3,  1.02472,  -64.7851,  'KINGSLAN',  115.00,  28
3017,  2,  15.780,  1.644,  0.000,  0.000,  3,  1.01000,  -35.3420,  'BLACKWEL',  18.000,  27
3018,  1,  -19.907,  -5.412,  0.000,  0.000,  3,  1.03039,  -45.3511,  'CHRISTOV',  230.00,  27
3019,  1,  104.051,  -10.579,  0.000,  0.000,  3,  1.03001,  -46.3554,  'CHRISTOV',  115.00,  27
3020,  2,  0.000,  0.000,  0.000,  0.000,  3,  1.03000,  -42.9803,  'CHRISTOV',  13.800,  27
3024,  1,  0.000,  0.000,  0.000,  0.000,  3,  1.02827,  -46.9032,  'ELDORADO',  115.00,  28
3025,  1,  0.000,  0.000,  0.000,  0.000,  3,  1.01993,  -55.9910,  'SAN SABA',  115.00,  28
3028,  2,  38.982,  1.464,  0.000,  0.000,  3,  1.04000,  -45.1014,  'ABILENE ',  18.000,  27
3029,  1,  0.000,  0.000,  0.000,  0.000,  3,  1.03043,  -60.5750,  'LOMETA 0',  115.00,  28
3034,  2,  32.340,  1.562,  0.000,  0.000,  3,  1.03000,  -30.5610,  'SNYDER 1',  22.000,  27
3035,  1,  0.000,  0.000,  0.000,  0.000,  3,  1.02266,  -55.2934,  'CHEROKEE',  115.00,  28
3036,  1,  0.000,  0.000,  0.000,  0.000,  3,  1.02097,  -53.0762,  'RICHLAND',  115.00,  28
3039,  2,  33.621,  -5.136,  0.000,  0.000,  3,  1.04000,  -37.7668,  'ROSCOE 2',  13.800,  27
3045,  2,  5.180,  -0.554,  0.000,  0.000,  3,  1.04000,  -36.1799,  'SILVER 4',  13.800,  27
3048,  2,  104.439,  -387.876,  0.000,  0.000,  3,  1.04380,  -47.6878,  'ROSCOE 5',  500.00,  27
3050,  1,  0.000,  -67.749,  0.000,  0.000,  3,  1.02096,  -53.1344,  'DEL RIO ',  230.00,  28
3051,  1,  0.000,  -20.546,  0.000,  0.000,  3,  1.01359,  -54.1569,  'DEL RIO ',  115.00,  28
3052,  1,  0.000,  0.000,  0.000,  0.000,  3,  1.01370,  -75.5605,  'HUNT 0  ',  115.00,  28
3055,  2,  31.156,  0.553,  0.000,  0.000,  3,  1.04000,  -38.9391,  'WINGATE ',  13.800,  27
3056,  2,  28.907,  1.767,  0.000,  0.000,  3,  1.04000,  -37.4647,  'WINGATE ',  13.800,  27
3057,  2,  29.463,  1.496,  0.000,  0.000,  3,  1.04000,  -37.5573,  'WINGATE ',  13.800,  27
3060,  2,  8.687,  -0.002,  0.000,  0.000,  3,  1.04000,  -34.4646,  'STERLING',  18.000,  27
3061,  2,  8.226,  0.124,  0.000,  0.000,  3,  1.04000,  -35.7049,  'STERLING',  18.000,  27
3062,  2,  7.160,  -2.650,  0.000,  0.000,  3,  1.04000,  -37.2376,  'STERLING',  18.000,  27
3063,  2,  7.592,  0.263,  0.000,  0.000,  3,  1.04000,  -36.5772,  'STERLING',  18.000,  27
3065,  2,  2.741,  -5.424,  0.000,  0.000,  3,  1.01304,  -32.8197,  'ROSCOE 4',  18.000,  27
3066,  1,  0.000,  0.000,  0.000,  0.000,  3,  1.02437,  -54.0182,  'BRADY 0 ',  115.00,  28
3068,  2,  28.704,  0.808,  0.000,  0.000,  3,  1.04000,  -35.2089,  'TRENT 1 ',  20.000,  27
3071,  2,  10.482,  -3.063,  0.000,  0.000,  3,  1.00761,  -35.1653,  'NOLAN 1 ',  24.000,  27
3073,  1,  0.000,  0.000,  0.000,  0.000,  3,  1.00541,  -77.4856,  'BRACKETT',  115.00,  28
3074,  2,  0.000,  0.000,  0.000,  0.000,  3,  1.00000,  -76.0332,  'BRACKETT',  13.800,  28
3075,  1,  0.000,  0.000,  0.000,  0.000,  3,  1.02300,  -52.2238,  'MASON 0 ',  115.00,  28
3076,  1,  0.000,  0.000,  0.000,  0.000,  3,  1.00711,  -77.5798,  'BRACKETT',  115.00,  28
3081,  2,  20.608,  -2.674,  0.000,  0.000,  3,  1.04000,  -35.9667,  'HERMLEIG',  20.000,  27
3084,  2,  20.893,  -8.802,  0.000,  0.000,  3,  1.00000,  -35.2726,  'MERKEL 1',  13.800,  27
3086,  2,  15.066,  -2.426,  0.000,  0.000,  3,  1.00423,  -32.3025,  'LORAINE ',  13.200,  27
3087,  2,  15.926,  -2.300,  0.000,  0.000,  3,  1.00494,  -31.5151,  'LORAINE ',  13.200,  27
3092,  2,  26.732,  6.115,  0.000,  0.000,  3,  1.04000,  -40.2750,  'ABILENE ',  13.800,  27
3093,  1,  0.000,  0.000,  0.000,  0.000,  3,  1.01293,  -76.7451,  'ROCKSPRI',  115.00,  28
3095,  2,  22.582,  5.753,  0.000,  0.000,  3,  1.04000,  -35.4313,  'MERKEL 2',  18.000,  27
3098,  2,  22.426,  -2.490,  0.000,  0.000,  3,  1.04000,  -32.6225,  'FLUVANNA',  13.800,  27
3101,  1,  0.000,  0.000,  0.000,  0.000,  3,  1.02056,  -58.3270,  'BUCHANAN',  115.00,  28
3104,  1,  0.000,  0.000,  0.000,  0.000,  3,  1.01900,  -58.3990,  'BUCHANAN',  115.00,  28
3105,  1,  -13.258,  0.740,  0.000,  0.000,  3,  1.01961,  -57.4432,  'BUCHANAN',  13.200,  28
3106,  3,  0.000,  0.000,  0.000,  0.000,  3,  1.00000,  -53.7710,  'BUCHANAN',  13.200,  28
3107,  1,  0.000,  0.000,  0.000,  0.000,  3,  1.01301,  -73.0419,  'INGRAM 0',  115.00,  28
3108,  1,  0.000,  0.000,  0.000,  0.000,  3,  1.01900,  -63.0082,  'KEMPNER ',  115.00,  28
3110,  2,  19.255,  -1.721,  0.000,  0.000,  3,  1.04000,  -33.1578,  'FLUVANNA',  13.800,  27
3112,  2,  12.185,  -4.987,  0.000,  0.000,  3,  1.00810,  -31.3390,  'STERLING',  18.000,  27
3113,  2,  12.185,  -4.987,  0.000,  0.000,  3,  1.00810,  -31.3390,  'STERLING',  18.000,  27
3118,  2,  33.512,  -4.982,  0.000,  0.000,  3,  1.00000,  -32.2368,  'SYNDER 2',  13.800,  27
3119,  1,  0.000,  0.000,  0.000,  0.000,  3,  1.02848,  -76.2044,  'BRACKETT',  115.00,  28
3120,  1,  -16.067,  0.000,  0.000,  0.000,  3,  1.02877,  -75.4142,  'BRACKETT',  13.800,  28
3122,  2,  17.807,  -1.527,  0.000,  0.000,  3,  1.00000,  -29.1149,  'ROSCOE 1',  18.000,  27
3123,  1,  0.000,  0.000,  0.000,  0.000,  3,  0.99977,  -79.4426,  'UVALDE 0',  115.00,  28
3124,  1,  0.000,  -42.784,  0.000,  0.000,  3,  1.03000,  -71.9635,  'FREDERIC',  115.00,  28
3126,  1,  0.000,  -45.869,  0.000,  0.000,  3,  1.00962,  -80.7056,  'SABINAL ',  115.00,  28
3127,  2,  18.802,  -4.120,  0.000,  0.000,  3,  1.01982,  -34.4487,  'SWEETWAT',  115.00,  27
3129,  2,  23.203,  -32.494,  0.000,  0.000,  3,  1.02546,  -34.4783,  'ROSCOE 3',  115.00,  27
3131,  2,  85.793,  -10.032,  0.000,  0.000,  3,  1.02000,  -38.4219,  'TUSOCOLA',  115.00,  27
3132,  1,  0.000,  0.000,  0.000,  0.000,  3,  1.02258,  -52.0258,  'EDEN 0  ',  115.00,  28
3137,  2,  97.457,  -14.810,  0.000,  0.000,  3,  1.03000,  -39.1066,  'SWEETWAT',  115.00,  27
3138,  1,  0.000,  0.000,  0.000,  0.000,  3,  1.02759,  -51.7122,  'MENARD 0',  115.00,  28
3141,  2,  28.802,  -11.793,  0.000,  0.000,  3,  1.02184,  -35.3635,  'SWEETWAT',  115.00,  27
3142,  1,  59.126,  -23.421,  0.000,  0.000,  3,  1.03001,  -52.4327,  'GOODFELL',  115.00,  27
3143,  1,  0.000,  -15.404,  0.000,  0.000,  3,  1.03000,  -50.7395,  'SANTA AN',  115.00,  28
3144,  1,  0.000,  0.000,  0.000,  0.000,  3,  1.02516,  -51.5353,  'ROWENA 0',  115.00,  28
3146,  1,  0.000,  -4.250,  0.000,  0.000,  3,  1.03001,  -49.6847,  'JUNCTION',  115.00,  28
3147,  1,  0.000,  -12.497,  0.000,  0.000,  3,  1.03000,  -61.9620,  'LAMPASAS',  115.00,  28
4002,  1,  0.000,  0.000,  0.000,  0.000,  4,  1.02052,  -76.7741,  'LAUGHLIN',  115.00,  20
4004,  1,  0.000,  0.000,  0.000,  0.000,  4,  1.02509,  -82.6483,  'LAREDO 7',  230.00,  20
4005,  1,  0.000,  -73.263,  0.000,  0.000,  4,  1.03003,  -86.0125,  'LAREDO 7',  115.00,  20
4006,  1,  0.000,  0.000,  0.000,  0.000,  4,  1.02850,  -83.8682,  'BRUNI 2 ',  115.00,  20
4008,  1,  0.000,  0.000,  0.000,  0.000,  4,  1.01436,  -69.8017,  'POTEET 0',  115.00,  20
4010,  2,  13.452,  -6.649,  0.000,  0.000,  4,  1.03000,  -86.7519,  'SARITA 3',  20.000,  21
4011,  1,  32.723,  -4.911,  0.000,  0.000,  4,  1.02118,  -87.4096,  'HEBBRONV',  115.00,  19
4014,  1,  0.000,  0.000,  0.000,  0.000,  4,  1.02335,  -76.3916,  'EAGLE PA',  230.00,  20
4015,  1,  0.000,  -74.357,  0.000,  0.000,  4,  1.03004,  -77.5483,  'EAGLE PA',  115.00,  20
4016,  1,  0.000,  0.000,  0.000,  0.000,  4,  1.02019,  -69.8912,  'CHARLOTT',  115.00,  20
4022,  1,  0.000,  0.000,  0.000,  0.000,  4,  1.01732,  -84.2790,  'ENCINAL ',  115.00,  20
4023,  1,  0.000,  0.000,  0.000,  0.000,  4,  1.01860,  -69.6468,  'MOORE 0 ',  115.00,  20
4024,  1,  0.000,  0.000,  0.000,  0.000,  4,  1.02765,  -68.3600,  'CHRISTIN',  230.00,  20
4025,  1,  0.000,  0.000,  0.000,  0.000,  4,  1.02469,  -69.4713,  'CHRISTIN',  115.00,  20
4026,  2,  0.000,  0.000,  0.000,  0.000,  4,  1.03000,  -66.1457,  'CHRISTIN',  13.800,  20
4029,  1,  19.436,  7.522,  0.000,  0.000,  4,  1.01251,  -64.5801,  'FANNIN 1',  115.00,  21
4030,  3,  -3.632,  0.192,  0.000,  0.000,  4,  1.01000,  -62.1236,  'FANNIN 2',  13.800,  21
4031,  1,  0.000,  0.000,  0.000,  0.000,  4,  1.02155,  -87.9689,  'SAN YGNA',  115.00,  20
4033,  1,  0.000,  0.000,  0.000,  0.000,  4,  1.01363,  -86.8162,  'LAREDO 6',  115.00,  20
4036,  1,  0.000,  0.000,  0.000,  0.000,  4,  1.00632,  -77.4758,  'CRYSTAL ',  115.00,  20
4043,  1,  46.272,  1.367,  0.000,  0.000,  4,  1.01171,  -91.5765,  'FALCON H',  115.00,  19
4047,  2,  18.681,  2.470,  0.000,  0.000,  4,  1.02000,  -88.6253,  'FALCON H',  13.800,  19
4050,  2,  21.647,  -8.500,  0.000,  0.000,  4,  1.01034,  -97.9201,  'SEBASTIA',  13.800,  19
4058,  2,  29.280,  4.131,  0.000,  0.000,  4,  1.03000,  -80.3834,  'GREGORY ',  13.800,  21
4059,  2,  30.923,  4.374,  0.000,  0.000,  4,  1.03000,  -80.5996,  'GREGORY ',  13.800,  21
4060,  2,  23.044,  2.793,  0.000,  0.000,  4,  1.03000,  -79.7771,  'GREGORY ',  13.800,  21
4061,  2,  30.087,  4.217,  0.000,  0.000,  4,  1.03000,  -80.1396,  'GREGORY ',  13.800,  21
4062,  2,  27.099,  2.888,  0.000,  0.000,  4,  1.03000,  -79.7399,  'GREGORY ',  13.800,  21
4063,  2,  29.585,  4.533,  0.000,  0.000,  4,  1.03000,  -80.1082,  'GREGORY ',  13.800,  21
4073,  1,  1449.346,  -249.695,  0.000,  0.000,  4,  1.02200,  -98.9411,  'MISSION ',  230.00,  19
4082,  2,  15.553,  0.224,  0.000,  0.000,  4,  1.04000,  -81.7703,  'CORPUS C',  13.800,  21
4083,  2,  16.373,  0.189,  0.000,  0.000,  4,  1.04000,  -82.0702,  'CORPUS C',  13.800,  21
4084,  2,  24.566,  -1.130,  0.000,  0.000,  4,  1.04000,  -83.6620,  'CORPUS C',  13.800,  21
4085,  2,  29.647,  -1.418,  0.000,  0.000,  4,  1.04000,  -83.2066,  'CORPUS C',  13.800,  21
4101,  1,  0.000,  0.000,  0.000,  0.000,  4,  1.01274,  -86.6591,  'LAREDO 3',  115.00,  20
4105,  2,  103.308,  5.489,  0.000,  0.000,  4,  1.01000,  -84.8999,  'TAFT 2 1',  18.000,  21
4113,  1,  0.000,  0.000,  0.000,  0.000,  4,  1.02634,  -84.2630,  'LAREDO 1',  230.00,  20
4114,  1,  0.000,  0.000,  0.000,  0.000,  4,  1.02060,  -85.7638,  'LAREDO 1',  115.00,  20
4115,  2,  0.000,  0.000,  0.000,  0.000,  4,  1.04000,  -83.1298,  'LAREDO 1',  13.800,  20
4116,  2,  0.000,  0.000,  0.000,  0.000,  4,  1.04000,  -83.0772,  'LAREDO 1',  13.800,  20
4117,  1,  0.000,  0.000,  0.000,  0.000,  4,  1.02235,  -69.9584,  'JOURDANT',  115.00,  20
4118,  1,  58.729,  -7.279,  0.000,  0.000,  4,  1.00863,  -90.6267,  'GEORGE W',  115.00,  21
4125,  1,  46.989,  4.992,  0.000,  0.000,  4,  1.00095,  -72.7977,  'PETTUS 0',  115.00,  21
4129,  1,  0.000,  0.000,  0.000,  0.000,  4,  1.03422,  -87.8110,  'PREMONT ',  115.00,  20
4130,  1,  0.000,  -14.556,  0.000,  0.000,  4,  1.03002,  -89.3233,  'FREER 0 ',  115.00,  20
4131,  1,  -0.001,  -87.503,  0.000,  0.000,  4,  1.03002,  -72.4344,  'PEARSALL',  230.00,  20
4132,  1,  0.000,  0.000,  0.000,  0.000,  4,  1.02643,  -73.5215,  'PEARSALL',  115.00,  20
4133,  2,  0.000,  0.000,  0.000,  0.000,  4,  1.03002,  -72.4344,  'PEARSALL',  20.000,  20
4134,  2,  0.000,  0.000,  0.000,  0.000,  4,  1.03002,  -72.4344,  'PEARSALL',  20.000,  20
4135,  2,  0.000,  0.000,  0.000,  0.000,  4,  1.03002,  -72.4344,  'PEARSALL',  20.000,  20
4136,  2,  0.000,  0.000,  0.000,  0.000,  4,  1.03002,  -72.4344,  'PEARSALL',  20.000,  20
4137,  2,  0.000,  0.000,  0.000,  0.000,  4,  1.03002,  -72.4344,  'PEARSALL',  20.000,  20
4138,  2,  0.000,  0.000,  0.000,  0.000,  4,  1.03002,  -72.4344,  'PEARSALL',  20.000,  20
4140,  1,  156.144,  -35.310,  0.000,  0.000,  4,  1.03378,  -87.8241,  'SARITA 1',  230.00,  21
4142,  2,  0.000,  0.000,  0.000,  0.000,  4,  1.04000,  -86.6243,  'SARITA 1',  13.800,  21
4143,  1,  0.000,  0.000,  0.000,  0.000,  4,  1.01230,  -76.2248,  'DILLEY 0',  115.00,  20
4146,  1,  0.000,  0.000,  0.000,  0.000,  4,  1.02391,  -84.5210,  'LAREDO 4',  230.00,  20
4147,  1,  0.000,  -105.471,  0.000,  0.000,  4,  1.02703,  -86.0847,  'LAREDO 4',  115.00,  20
4148,  1,  0.000,  0.000,  0.000,  0.000,  4,  1.01250,  -90.9034,  'THREE RI',  115.00,  20
4153,  2,  12.644,  -22.243,  0.000,  0.000,  4,  1.04000,  -88.9791,  'ARMSTRON',  18.000,  21
4160,  2,  85.284,  14.294,  0.000,  0.000,  4,  1.03000,  -83.2500,  'CORPUS C',  13.800,  21
4161,  2,  39.364,  6.405,  0.000,  0.000,  4,  1.03000,  -82.1153,  'CORPUS C',  13.800,  21
4162,  2,  39.835,  5.634,  0.000,  0.000,  4,  1.03000,  -82.1421,  'CORPUS C',  13.800,  21
4166,  2,  14.584,  -5.479,  0.000,  0.000,  4,  1.01399,  -85.9526,  'SARITA 2',  13.800,  21
4172,  1,  0.000,  0.000,  0.000,  0.000,  4,  1.01827,  -71.1051,  'PLEASANT',  115.00,  20
4174,  1,  -0.002,  -53.588,  0.000,  0.000,  4,  1.03000,  -68.9724,  'LYTLE 0 ',  115.00,  20
4175,  1,  0.000,  -13.361,  0.000,  0.000,  4,  1.03002,  -85.9030,  'LAREDO 2',  115.00,  20
4176,  1,  0.000,  0.000,  0.000,  0.000,  4,  1.03824,  -84.7080,  'BRUNI 1 ',  115.00,  20
4177,  2,  0.000,  0.000,  0.000,  0.000,  4,  1.04000,  -82.7726,  'BRUNI 1 ',  13.800,  20
4178,  1,  62.326,  -48.012,  0.000,  0.000,  4,  1.02849,  -75.0202,  'GOLIAD 0',  115.00,  21
4179,  1,  0.000,  0.000,  0.000,  0.000,  4,  1.02262,  -90.1528,  'SAN DIEG',  115.00,  20
4181,  2,  158.076,  2.654,  0.000,  0.000,  4,  1.01977,  -80.3219,  'TAFT 1 0',  230.00,  21
4183,  2,  67.753,  -8.652,  0.000,  0.000,  4,  1.02536,  -90.9478,  'SAN PERL',  230.00,  19
...
 0 /End of Bus data, Begin Generator data
1004,  '1',  91.083,  -30.380,  44.940,  -30.380,  1.01000,  0,  253.200,  0.00000,  1.00000,  0.00000,  0.00000,  1.00000,  1,  100.0,  211.000,  63.300
1009,  '1',  35.610,  -11.880,  17.570,  -11.880,  1.00000,  0,  99.000,  0.00000,  1.00000,  0.00000,  0.00000,  1.00000,  1,  100.0,  82.500,  24.750
1021,  '1',  86.122,  -28.730,  42.490,  -28.730,  1.00000,  0,  239.400,  0.00000,  1.00000,  0.00000,  0.00000,  1.00000,  1,  100.0,  199.500,  59.850
1023,  '1',  77.701,  -11.530,  38.340,  -25.920,  1.01000,  0,  216.000,  0.00000,  1.00000,  0.00000,  0.00000,  1.00000,  1,  100.0,  180.000,  54.000
1026,  '1',  53.614,  -17.880,  26.450,  -17.880,  1.00000,  0,  149.040,  0.00000,  1.00000,  0.00000,  0.00000,  1.00000,  1,  100.0,  124.200,  37.260
1033,  '1',  120.006,  -40.030,  59.210,  -40.030,  1.00000,  0,  333.600,  0.00000,  1.00000,  0.00000,  0.00000,  1.00000,  1,  100.0,  278.000,  83.400
1035,  '1',  38.851,  -12.960,  19.170,  -12.960,  1.00000,  0,  108.000,  0.00000,  1.00000,  0.00000,  0.00000,  1.00000,  1,  100.0,  90.000,  27.000
1039,  '1',  63.675,  -21.240,  31.420,  -21.240,  1.00000,  0,  177.000,  0.00000,  1.00000,  0.00000,  0.00000,  1.00000,  1,  100.0,  147.500,  44.250
1042,  '1',  70.162,  -10.483,  25.960,  -17.550,  1.00000,  0,  146.280,  0.00000,  1.00000,  0.00000,  0.00000,  1.00000,  1,  100.0,  121.900,  36.570
1048,  '1',  97.560,  -17.274,  165.530,  -36.100,  1.00000,  0,  390.240,  0.00000,  0.10170,  0.00000,  0.00000,  1.00000,  1,  100.0,  325.200,  97.560
1049,  '1',  97.560,  -5.329,  165.530,  -36.100,  1.00000,  0,  390.240,  0.00000,  0.13490,  0.00000,  0.00000,  1.00000,  1,  100.0,  325.200,  97.560
1053,  '1',  53.640,  -19.850,  91.010,  -19.850,  1.00000,  0,  214.560,  0.00000,  0.16870,  0.00000,  0.00000,  1.00000,  1,  100.0,  178.800,  53.640
1057,  '1',  69.068,  -17.280,  25.560,  -17.280,  1.00000,  0,  144.000,  0.00000,  1.00000,  0.00000,  0.00000,  1.00000,  1,  100.0,  120.000,  36.000
1063,  '1',  124.421,  0.000,  0.000,  0.000,  1.01000,  0,  276.000,  0.00000,  1.00000,  0.00000,  0.00000,  1.00000,  1,  100.0,  230.000,  69.000
1066,  '1',  61.517,  -10.562,  30.350,  -20.520,  1.00000,  0,  171.000,  0.00000,  1.00000,  0.00000,  0.00000,  1.00000,  1,  100.0,  142.500,  42.750
1070,  '1',  69.287,  19.690,  34.190,  -23.110,  1.04000,  0,  192.600,  0.00000,  1.00000,  0.00000,  0.00000,  1.00000,  1,  100.0,  160.500,  48.150
1072,  '1',  79.495,  -8.298,  97.800,  -21.330,  1.01000,  0,  230.560,  0.00000,  0.30820,  0.00000,  0.00000,  1.00000,  1,  100.0,  192.130,  57.640
1073,  '1',  57.640,  -7.580,  97.800,  -21.330,  1.01000,  0,  230.560,  0.00000,  0.19480,  0.00000,  0.00000,  1.00000,  1,  100.0,  192.130,  57.640
1074,  '1',  57.640,  -4.782,  97.800,  -21.330,  1.01000,  0,  230.560,  0.00000,  0.20960,  0.00000,  0.00000,  1.00000,  1,  100.0,  192.130,  57.640
1075,  '1',  57.640,  -5.721,  97.800,  -21.330,  1.01000,  0,  230.560,  0.00000,  0.12370,  0.00000,  0.00000,  1.00000,  1,  100.0,  192.130,  57.640
1076,  '1',  57.640,  -11.320,  97.800,  -21.330,  1.01000,  0,  230.560,  0.00000,  0.10660,  0.00000,  0.00000,  1.00000,  1,  100.0,  192.130,  57.640
1077,  '1',  57.640,  -5.389,  97.800,  -21.330,  1.01000,  0,  230.560,  0.00000,  0.15380,  0.00000,  0.00000,  1.00000,  1,  100.0,  192.130,  57.640
1081,  '1',  85.950,  -18.126,  145.830,  -31.800,  1.01000,  0,  343.800,  0.00000,  0.14960,  0.00000,  0.00000,  1.00000,  1,  100.0,  286.500,  85.950
1082,  '1',  64.751,  -21.600,  31.950,  -21.600,  1.00000,  0,  180.000,  0.00000,  1.00000,  0.00000,  0.00000,  1.00000,  1,  100.0,  150.000,  45.000
1084,  '1',  49.856,  24.600,  24.600,  -16.630,  1.04000,  0,  138.600,  0.00000,  1.00000,  0.00000,  0.00000,  1.00000,  1,  100.0,  115.500,  34.650
1088,  '1',  32.376,  -4.857,  15.970,  -10.800,  1.00000,  0,  90.000,  0.00000,  1.00000,  0.00000,  0.00000,  1.00000,  1,  100.0,  75.000,  22.500
1090,  '1',  31.080,  29.776,  40.150,  -27.140,  1.02000,  0,  226.200,  0.00000,  1.00000,  0.00000,  0.00000,  1.00000,  1,  100.0,  188.500,  56.550
2004,  '1',  117.540,  -43.490,  199.430,  -43.490,  1.02000,  0,  470.160,  0.00000,  0.10640,  0.00000,  0.00000,  1.00000,  1,  100.0,  391.800,  117.540
2005,  '1',  117.540,  -43.489,  199.430,  -43.490,  1.02000,  0,  470.160,  0.00000,  0.22750,  0.00000,  0.00000,  1.00000,  1,  100.0,  391.800,  117.540
2006,  '1',  117.540,  -26.916,  199.430,  -43.490,  1.02000,  0,  470.160,  0.00000,  0.20040,  0.00000,  0.00000,  1.00000,  1,  100.0,  391.800,  117.540
2013,  '1',  66.878,  -28.890,  42.730,  -28.890,  1.00000,  0,  240.720,  0.00000,  1.00000,  0.00000,  0.00000,  1.00000,  1,  100.0,  200.600,  60.180
2024,  '1',  50.000,  -18.500,  84.830,  -18.500,  1.02000,  0,  200.000,  0.00000,  0.15080,  0.00000,  0.00000,  1.00000,  1,  100.0,  166.670,  50.000
2057,  '1',  339.860,  -222.884,  335.520,  -87.840,  0.99000,  0,  864.000,  0.00000,  0.17700,  0.00000,  0.00000,  1.00000,  1,  100.0,  720.000,  216.000
2062,  '1',  78.463,  -18.376,  28.840,  -19.500,  1.02000,  0,  162.480,  0.00000,  1.00000,  0.00000,  0.00000,  1.00000,  1,  100.0,  135.400,  40.620
2071,  '1',  43.216,  -21.600,  31.950,  -21.600,  1.00000,  0,  180.000,  0.00000,  1.00000,  0.00000,  0.00000,  1.00000,  1,  100.0,  150.000,  45.000
2078,  '1',  32.414,  -11.708,  23.960,  -16.200,  1.02000,  0,  135.000,  0.00000,  1.00000,  0.00000,  0.00000,  1.00000,  1,  100.0,  112.500,  33.750
2095,  '1',  35.339,  -11.450,  16.930,  -11.450,  1.00000,  0,  95.400,  0.00000,  1.00000,  0.00000,  0.00000,  1.00000,  1,  100.0,  79.500,  23.850
2100,  '1',  46.775,  -21.600,  31.950,  -21.600,  1.02000,  0,  180.000,  0.00000,  1.00000,  0.00000,  0.00000,  1.00000,  1,  100.0,  150.000,  45.000
2103,  '1',  80.320,  -29.720,  136.280,  -29.720,  1.00000,  0,  321.280,  0.00000,  0.33430,  0.00000,  0.00000,  1.00000,  1,  100.0,  267.730,  80.320
2104,  '1',  80.320,  -29.720,  136.280,  -29.720,  1.00000,  0,  321.280,  0.00000,  0.31470,  0.00000,  0.00000,  1.00000,  1,  100.0,  267.730,  80.320
2105,  '1',  80.320,  -29.720,  136.280,  -29.720,  1.00000,  0,  321.280,  0.00000,  0.14160,  0.00000,  0.00000,  1.00000,  1,  100.0,  267.730,  80.320
2115,  '1',  55.410,  -20.500,  94.020,  -20.500,  1.00000,  0,  221.660,  0.00000,  0.14250,  0.00000,  0.00000,  1.00000,  1,  100.0,  184.720,  55.410
2116,  '1',  55.410,  -20.500,  94.020,  -20.500,  1.00000,  0,  221.660,  0.00000,  0.18690,  0.00000,  0.00000,  1.00000,  1,  100.0,  184.720,  55.410
2117,  '1',  55.410,  -20.500,  94.020,  -20.500,  1.00000,  0,  221.660,  0.00000,  0.32540,  0.00000,  0.00000,  1.00000,  1,  100.0,  184.720,  55.410
2118,  '1',  55.410,  -20.500,  94.020,  -20.500,  1.00000,  0,  221.660,  0.00000,  0.10610,  0.00000,  0.00000,  1.00000,  1,  100.0,  184.720,  55.410
2119,  '1',  55.410,  -20.500,  94.020,  -20.500,  1.00000,  0,  221.660,  0.00000,  0.13600,  0.00000,  0.00000,  1.00000,  1,  100.0,  184.720,  55.410
2120,  '1',  55.410,  -20.500,  94.020,  -20.500,  1.01000,  0,  221.660,  0.00000,  0.20680,  0.00000,  0.00000,  1.00000,  1,  100.0,  184.720,  55.410
2123,  '1',  33.272,  -26.160,  38.700,  -26.160,  1.00000,  0,  218.040,  0.00000,  1.00000,  0.00000,  0.00000,  1.00000,  1,  100.0,  181.700,  54.510
3017,  '1',  73.172,  -12.314,  36.100,  -24.410,  1.01000,  0,  203.400,  0.00000,  1.00000,  0.00000,  0.00000,  1.00000,  1,  100.0,  169.500,  50.850
3020,  '1',  64.751,  -0.528,  31.950,  -21.600,  1.03000,  0,  180.000,  0.00000,  1.00000,  0.00000,  0.00000,  1.00000,  1,  100.0,  150.000,  45.000
3028,  '1',  57.622,  10.047,  42.600,  -28.800,  1.04000,  0,  240.000,  0.00000,  1.00000,  0.00000,  0.00000,  1.00000,  1,  100.0,  200.000,  60.000
3034,  '1',  56.331,  7.659,  27.800,  -18.790,  1.03000,  0,  156.600,  0.00000,  1.00000,  0.00000,  0.00000,  1.00000,  1,  100.0,  130.500,  39.150
3039,  '1',  90.220,  15.938,  44.520,  -30.100,  1.04000,  0,  250.800,  0.00000,  1.00000,  0.00000,  0.00000,  1.00000,  1,  100.0,  209.000,  62.700
3045,  '1',  134.100,  11.322,  227.520,  -49.620,  1.04000,  0,  536.400,  0.00000,  0.14470,  0.00000,  0.00000,  1.00000,  1,  100.0,  447.000,  134.100
3048,  '1',  104.034,  -34.700,  51.330,  -34.700,  1.04000,  0,  289.200,  0.00000,  1.00000,  0.00000,  0.00000,  1.00000,  1,  100.0,  241.000,  72.300
3055,  '1',  105.835,  14.772,  52.220,  -35.300,  1.04000,  0,  294.200,  0.00000,  1.00000,  0.00000,  0.00000,  1.00000,  1,  100.0,  245.170,  73.550
3056,  '1',  105.835,  9.252,  52.220,  -35.300,  1.04000,  0,  294.200,  0.00000,  1.00000,  0.00000,  0.00000,  1.00000,  1,  100.0,  245.170,  73.550
3057,  '1',  105.835,  8.317,  52.220,  -35.300,  1.04000,  0,  294.200,  0.00000,  1.00000,  0.00000,  0.00000,  1.00000,  1,  100.0,  245.170,  73.550
3060,  '1',  71.497,  4.636,  35.280,  -23.850,  1.04000,  0,  198.750,  0.00000,  1.00000,  0.00000,  0.00000,  1.00000,  1,  100.0,  165.630,  49.690
3061,  '1',  71.497,  5.279,  35.280,  -23.850,  1.04000,  0,  198.750,  0.00000,  1.00000,  0.00000,  0.00000,  1.00000,  1,  100.0,  165.630,  49.690
3062,  '1',  71.497,  7.898,  35.280,  -23.850,  1.04000,  0,  198.750,  0.00000,  1.00000,  0.00000,  0.00000,  1.00000,  1,  100.0,  165.630,  49.690
3063,  '1',  71.497,  5.715,  35.280,  -23.850,  1.04000,  0,  198.750,  0.00000,  1.00000,  0.00000,  0.00000,  1.00000,  1,  100.0,  165.630,  49.690
3065,  '1',  34.747,  -11.590,  17.150,  -11.590,  1.00000,  0,  96.600,  0.00000,  1.00000,  0.00000,  0.00000,  1.00000,  1,  100.0,  80.500,  24.150
3068,  '1',  64.751,  20.240,  31.950,  -21.600,  1.04000,  0,  180.000,  0.00000,  1.00000,  0.00000,  0.00000,  1.00000,  1,  100.0,  150.000,  45.000
3071,  '1',  73.471,  -24.510,  36.250,  -24.510,  1.00000,  0,  204.240,  0.00000,  1.00000,  0.00000,  0.00000,  1.00000,  1,  100.0,  170.200,  51.060
3074,  '1',  43.081,  -9.736,  21.260,  -14.370,  1.00000,  0,  119.760,  0.00000,  1.00000,  0.00000,  0.00000,  1.00000,  1,  100.0,  99.800,  29.940
3081,  '1',  107.487,  10.187,  53.040,  -35.860,  1.04000,  0,  298.800,  0.00000,  1.00000,  0.00000,  0.00000,  1.00000,  1,  100.0,  249.000,  74.700
3084,  '1',  100.361,  -28.107,  49.520,  -33.480,  1.00000,  0,  279.000,  0.00000,  1.00000,  0.00000,  0.00000,  1.00000,  1,  100.0,  232.500,  69.750
3086,  '1',  32.376,  -10.800,  15.970,  -10.800,  1.00000,  0,  90.000,  0.00000,  1.00000,  0.00000,  0.00000,  1.00000,  1,  100.0,  75.000,  22.500
3087,  '1',  43.167,  -10.800,  15.970,  -10.800,  1.00000,  0,  90.000,  0.00000,  1.00000,  0.00000,  0.00000,  1.00000,  1,  100.0,  75.000,  22.500
3092,  '1',  86.335,  10.214,  42.600,  -28.800,  1.04000,  0,  240.000,  0.00000,  1.00000,  0.00000,  0.00000,  1.00000,  1,  100.0,  200.000,  60.000
3095,  '1',  52.060,  7.713,  25.690,  -17.370,  1.04000,  0,  144.720,  0.00000,  1.00000,  0.00000,  0.00000,  1.00000,  1,  100.0,  120.600,  36.180
3098,  '1',  69.068,  7.006,  34.080,  -23.040,  1.04000,  0,  192.000,  0.00000,  1.00000,  0.00000,  0.00000,  1.00000,  1,  100.0,  160.000,  48.000
3106,  '1',  61.426,  -18.203,  62.477,  -2.690,  1.00000,  0,  65.880,  0.00000,  0.29220,  0.00000,  0.00000,  1.00000,  1,  100.0,  162.800,  0.000
3110,  '1',  36.261,  5.840,  17.890,  -12.100,  1.04000,  0,  100.800,  0.00000,  1.00000,  0.00000,  0.00000,  1.00000,  1,  100.0,  84.000,  25.200
3112,  '1',  32.289,  -10.770,  15.930,  -10.770,  1.00000,  0,  89.760,  0.00000,  1.00000,  0.00000,  0.00000,  1.00000,  1,  100.0,  74.800,  22.440
3113,  '1',  32.289,  -10.770,  15.930,  -10.770,  1.00000,  0,  89.760,  0.00000,  1.00000,  0.00000,  0.00000,  1.00000,  1,  100.0,  74.800,  22.440
3118,  '1',  51.801,  -15.682,  25.560,  -17.280,  1.00000,  0,  144.000,  0.00000,  1.00000,  0.00000,  0.00000,  1.00000,  1,  100.0,  120.000,  36.000
3122,  '1',  85.040,  -19.844,  41.960,  -28.370,  1.00000,  0,  236.400,  0.00000,  1.00000,  0.00000,  0.00000,  1.00000,  1,  100.0,  197.000,  59.100
3127,  '1',  58.276,  -19.440,  28.760,  -19.440,  1.00000,  0,  162.000,  0.00000,  1.00000,  0.00000,  0.00000,  1.00000,  1,  100.0,  135.000,  40.500
3129,  '1',  54.610,  -18.220,  26.940,  -18.220,  1.00000,  0,  151.800,  0.00000,  1.00000,  0.00000,  0.00000,  1.00000,  1,  100.0,  126.500,  37.950
3131,  '1',  49.211,  -10.210,  24.280,  -16.420,  1.02000,  0,  136.800,  0.00000,  1.00000,  0.00000,  0.00000,  1.00000,  1,  100.0,  114.000,  34.200
3137,  '1',  43.685,  17.780,  21.560,  -14.570,  1.03000,  0,  121.440,  0.00000,  1.00000,  0.00000,  0.00000,  1.00000,  1,  100.0,  101.200,  30.360
3141,  '1',  39.495,  -13.180,  19.490,  -13.180,  1.00000,  0,  109.800,  0.00000,  1.00000,  0.00000,  0.00000,  1.00000,  1,  100.0,  91.500,  27.450
4010,  '1',  87.026,  3.462,  42.940,  -29.030,  1.03000,  0,  241.920,  0.00000,  1.00000,  0.00000,  0.00000,  1.00000,  1,  100.0,  201.600,  60.480
4026,  '1',  123.000,  6.926,  191.060,  -50.020,  1.03000,  0,  492.000,  0.00000,  0.32770,  0.00000,  0.00000,  1.00000,  1,  100.0,  410.000,  123.000
4030,  '1',  111.512,  -14.815,  290.040,  -75.930,  1.01000,  0,  746.880,  0.00000,  0.27970,  0.00000,  0.00000,  1.00000,  1,  100.0,  622.400,  186.720
4047,  '1',  58.304,  4.931,  75.102,  -3.230,  1.02000,  0,  79.200,  0.00000,  0.32270,  0.00000,  0.00000,  1.00000,  1,  100.0,  195.700,  0.000
4050,  '1',  86.335,  -28.800,  42.600,  -28.800,  1.00000,  0,  240.000,  0.00000,  1.00000,  0.00000,  0.00000,  1.00000,  1,  100.0,  200.000,  60.000
4058,  '1',  43.200,  11.457,  73.300,  -15.980,  1.03000,  0,  172.800,  0.00000,  0.13700,  0.00000,  0.00000,  1.00000,  1,  100.0,  144.000,  43.200
4059,  '1',  43.200,  12.831,  73.300,  -15.980,  1.03000,  0,  172.800,  0.00000,  0.15140,  0.00000,  0.00000,  1.00000,  1,  100.0,  144.000,  43.200
4060,  '1',  43.200,  7.930,  73.300,  -15.980,  1.03000,  0,  172.800,  0.00000,  0.13940,  0.00000,  0.00000,  1.00000,  1,  100.0,  144.000,  43.200
4061,  '1',  51.700,  11.527,  87.720,  -19.130,  1.03000,  0,  206.800,  0.00000,  0.21560,  0.00000,  0.00000,  1.00000,  1,  100.0,  172.330,  51.700
4062,  '1',  51.700,  8.544,  87.720,  -19.130,  1.03000,  0,  206.800,  0.00000,  0.25930,  0.00000,  0.00000,  1.00000,  1,  100.0,  172.330,  51.700
4063,  '1',  51.700,  11.992,  87.720,  -19.130,  1.03000,  0,  206.800,  0.00000,  0.14410,  0.00000,  0.00000,  1.00000,  1,  100.0,  172.330,  51.700
4082,  '1',  141.170,  15.613,  123.890,  -27.020,  1.04000,  0,  292.080,  0.00000,  0.13810,  0.00000,  0.00000,  1.00000,  1,  100.0,  243.400,  73.020
4083,  '1',  141.170,  16.483,  123.890,  -27.020,  1.04000,  0,  292.080,  0.00000,  0.15700,  0.00000,  0.00000,  1.00000,  1,  100.0,  243.400,  73.020
4084,  '1',  141.170,  28.692,  123.890,  -27.020,  1.04000,  0,  292.080,  0.00000,  0.19110,  0.00000,  0.00000,  1.00000,  1,  100.0,  243.400,  73.020
4085,  '1',  204.160,  32.389,  179.170,  -39.070,  1.04000,  0,  422.400,  0.00000,  0.31920,  0.00000,  0.00000,  1.00000,  1,  100.0,  352.000,  105.600
4105,  '1',  51.860,  -4.725,  38.340,  -25.920,  1.01000,  0,  216.000,  0.00000,  1.00000,  0.00000,  0.00000,  1.00000,  1,  100.0,  180.000,  54.000
4115,  '1',  39.540,  25.929,  67.090,  -14.630,  1.04000,  0,  158.160,  0.00000,  0.11310,  0.00000,  0.00000,  1.00000,  1,  100.0,  131.800,  39.540
4116,  '1',  39.540,  24.258,  67.090,  -14.630,  1.04000,  0,  158.160,  0.00000,  0.15150,  0.00000,  0.00000,  1.00000,  1,  100.0,  131.800,  39.540
4133,  '1',  0.000,  0.000,  17.100,  -3.730,  1.00000,  0,  40.320,  0.00000,  0.22730,  0.00000,  0.00000,  1.00000,  0,  100.0,  33.600,  10.080
4134,  '1',  0.000,  -3.730,  17.100,  -3.730,  1.00000,  0,  40.320,  0.00000,  0.18000,  0.00000,  0.00000,  1.00000,  0,  100.0,  33.600,  10.080
4135,  '1',  0.000,  -3.730,  17.100,  -3.730,  1.00000,  0,  40.320,  0.00000,  0.10840,  0.00000,  0.00000,  1.00000,  0,  100.0,  33.600,  10.080
4136,  '1',  0.000,  -3.730,  17.100,  -3.730,  1.00000,  0,  40.320,  0.00000,  0.18960,  0.00000,  0.00000,  1.00000,  0,  100.0,  33.600,  10.080
4137,  '1',  0.000,  0.000,  34.200,  -7.460,  1.00000,  0,  80.640,  0.00000,  0.27350,  0.00000,  0.00000,  1.00000,  0,  100.0,  67.200,  20.160
4138,  '1',  0.000,  0.000,  33.590,  -7.330,  1.00000,  0,  79.200,  0.00000,  0.16760,  0.00000,  0.00000,  1.00000,  0,  100.0,  66.000,  19.800
4142,  '1',  81.155,  22.472,  40.040,  -27.070,  1.04000,  0,  225.600,  0.00000,  1.00000,  0.00000,  0.00000,  1.00000,  1,  100.0,  188.000,  56.400
4153,  '1',  122.250,  48.066,  60.320,  -40.780,  1.04000,  0,  339.840,  0.00000,  1.00000,  0.00000,  0.00000,  1.00000,  1,  100.0,  283.200,  84.960
4160,  '1',  59.330,  30.026,  100.660,  -21.950,  1.03000,  0,  237.320,  0.00000,  0.18820,  0.00000,  0.00000,  1.00000,  1,  100.0,  197.770,  59.330
4161,  '1',  59.330,  12.735,  100.660,  -21.950,  1.03000,  0,  237.320,  0.00000,  0.12390,  0.00000,  0.00000,  1.00000,  1,  100.0,  197.770,  59.330
4162,  '1',  59.330,  11.626,  100.660,  -21.950,  1.03000,  0,  237.320,  0.00000,  0.17220,  0.00000,  0.00000,  1.00000,  1,  100.0,  197.770,  59.330
4166,  '1',  86.767,  -28.940,  42.810,  -28.940,  1.00000,  0,  241.200,  0.00000,  1.00000,  0.00000,  0.00000,  1.00000,  1,  100.0,  201.000,  60.300
4177,  '1',  64.751,  1.294,  31.950,  -21.600,  1.04000,  0,  180.000,  0.00000,  1.00000,  0.00000,  0.00000,  1.00000,  1,  100.0,  150.000,  45.000
4181,  '1',  57.649,  42.620,  42.620,  -28.810,  1.04000,  0,  240.120,  0.00000,  1.00000,  0.00000,  0.00000,  1.00000,  1,  100.0,  200.100,  60.030
4183,  '1',  87.630,  43.240,  43.240,  -29.230,  1.03000,  0,  243.600,  0.00000,  1.00000,  0.00000,  0.00000,  1.00000,  1,  100.0,  203.000,  60.900
4192,  '1',  652.470,  17.447,  726.490,  -158.450,  1.02000,  0,  1712.76,  0.00000,  0.14340,  0.00000,  0.00000,  1.00000,  1,  100.0,  1427.31,  428.190
4194,  '1',  87.026,  36.886,  42.940,  -29.030,  1.02000,  0,  241.920,  0.00000,  1.00000,  0.00000,  0.00000,  1.00000,  1,  100.0,  201.600,  60.480
4195,  '1',  39.714,  -13.250,  19.600,  -13.250,  1.00000,  0,  110.400,  0.00000,  1.00000,  0.00000,  0.00000,  1.00000,  1,  100.0,  92.000,  27.600
5020,  '1',  34.573,  -17.280,  25.560,  -17.280,  1.00000,  0,  144.000,  0.00000,  1.00000,  0.00000,  0.00000,  1.00000,  1,  100.0,  120.000,  36.000
5037,  '1',  222.100,  -34.240,  157.010,  -34.240,  1.02000,  0,  370.160,  0.00000,  0.29910,  0.00000,  0.00000,  1.00000,  1,  100.0,  308.470,  92.540
5038,  '1',  222.100,  -34.240,  157.010,  -34.240,  1.02000,  0,  370.160,  0.00000,  0.12330,  0.00000,  0.00000,  1.00000,  1,  100.0,  308.470,  92.540
5039,  '1',  222.100,  -34.240,  157.010,  -34.240,  1.02000,  0,  370.160,  0.00000,  0.21470,  0.00000,  0.00000,  1.00000,  1,  100.0,  308.470,  92.540
5040,  '1',  222.100,  -34.240,  157.010,  -34.240,  1.02000,  0,  370.160,  0.00000,  0.19240,  0.00000,  0.00000,  1.00000,  1,  100.0,  308.470,  92.540
5041,  '1',  222.100,  -34.240,  157.010,  -34.240,  1.02000,  0,  370.160,  0.00000,  0.11590,  0.00000,  0.00000,  1.00000,  1,  100.0,  308.470,  92.540
5042,  '1',  222.100,  -34.240,  157.010,  -34.240,  1.02000,  0,  370.160,  0.00000,  0.19130,  0.00000,  0.00000,  1.00000,  1,  100.0,  308.470,  92.540
5057,  '1',  212.620,  -35.230,  161.530,  -35.230,  1.00000,  0,  380.820,  0.00000,  0.19130,  0.00000,  0.00000,  1.00000,  1,  100.0,  317.350,  95.200
5058,  '1',  184.060,  -35.230,  161.530,  -35.230,  1.00000,  0,  380.820,  0.00000,  0.29820,  0.00000,  0.00000,  1.00000,  1,  100.0,  317.350,  95.200
5067,  '1',  315.550,  -8.349,  223.080,  -48.650,  1.03000,  0,  525.920,  0.00000,  0.32610,  0.00000,  0.00000,  1.00000,  1,  100.0,  438.270,  131.480
5068,  '1',  315.550,  -9.129,  223.080,  -48.650,  1.03000,  0,  525.920,  0.00000,  0.11690,  0.00000,  0.00000,  1.00000,  1,  100.0,  438.270,  131.480
5069,  '1',  315.550,  -8.976,  223.080,  -48.650,  1.03000,  0,  525.920,  0.00000,  0.10560,  0.00000,  0.00000,  1.00000,  1,  100.0,  438.270,  131.480
5089,  '1',  36.913,  16.685,  47.569,  -2.050,  1.01000,  0,  50.160,  0.00000,  0.24100,  0.00000,  0.00000,  1.00000,  1,  100.0,  123.900,  0.000
5166,  '1',  37.950,  22.245,  64.390,  -14.040,  1.04000,  0,  151.800,  0.00000,  0.13910,  0.00000,  0.00000,  1.00000,  1,  100.0,  126.500,  37.950
5198,  '1',  43.216,  -21.600,  31.950,  -21.600,  1.00000,  0,  180.000,  0.00000,  1.00000,  0.00000,  0.00000,  1.00000,  1,  100.0,  150.000,  45.000
5206,  '1',  144.230,  -27.600,  126.570,  -27.600,  1.01000,  0,  298.400,  0.00000,  0.11980,  0.00000,  0.00000,  1.00000,  1,  100.0,  248.670,  74.600
5207,  '1',  144.230,  -27.600,  126.570,  -27.600,  1.01000,  0,  298.400,  0.00000,  0.18090,  0.00000,  0.00000,  1.00000,  1,  100.0,  248.670,  74.600
5208,  '1',  144.230,  -27.600,  126.570,  -27.600,  1.01000,  0,  298.400,  0.00000,  0.10560,  0.00000,  0.00000,  1.00000,  1,  100.0,  248.670,  74.600
5238,  '1',  64.824,  -32.400,  47.930,  -32.400,  1.00000,  0,  270.000,  0.00000,  1.00000,  0.00000,  0.00000,  1.00000,  1,  100.0,  225.000,  67.500
5243,  '1',  43.216,  -21.600,  31.950,  -21.600,  1.00000,  0,  180.000,  0.00000,  1.00000,  0.00000,  0.00000,  1.00000,  1,  100.0,  150.000,  45.000
5262,  '1',  1215.000,  -99.630,  447.120,  -99.630,  1.01000,  0,  1458.00,  0.00000,  0.26310,  0.00000,  0.00000,  1.00000,  1,  100.0,  1215.00,  364.500
5263,  '1',  1215.000,  -99.630,  447.120,  -99.630,  1.01000,  0,  1458.00,  0.00000,  0.16260,  0.00000,  0.00000,  1.00000,  1,  100.0,  1215.00,  364.500
5281,  '1',  80.320,  -29.720,  136.280,  -29.720,  1.00000,  0,  321.280,  0.00000,  0.10660,  0.00000,  0.00000,  1.00000,  1,  100.0,  267.730,  80.320
5282,  '1',  80.320,  -29.720,  136.280,  -29.720,  1.00000,  0,  321.280,  0.00000,  0.23940,  0.00000,  0.00000,  1.00000,  1,  100.0,  267.730,  80.320
5283,  '1',  80.320,  -29.720,  136.280,  -29.720,  1.00000,  0,  321.280,  0.00000,  0.10650,  0.00000,  0.00000,  1.00000,  1,  100.0,  267.730,  80.320
5298,  '1',  34.500,  58.530,  58.530,  -12.760,  1.04000,  0,  138.000,  0.00000,  0.13260,  0.00000,  0.00000,  1.00000,  1,  100.0,  115.000,  34.500
5299,  '1',  34.500,  29.494,  58.530,  -12.760,  1.04000,  0,  138.000,  0.00000,  0.32280,  0.00000,  0.00000,  1.00000,  1,  100.0,  115.000,  34.500
5300,  '1',  34.500,  35.591,  58.530,  -12.760,  1.04000,  0,  138.000,  0.00000,  0.21910,  0.00000,  0.00000,  1.00000,  1,  100.0,  115.000,  34.500
5302,  '1',  139.130,  36.897,  236.050,  -51.480,  1.04000,  0,  556.500,  0.00000,  0.13300,  0.00000,  0.00000,  1.00000,  1,  100.0,  463.750,  139.130
5303,  '1',  139.130,  49.907,  236.050,  -51.480,  1.04000,  0,  556.500,  0.00000,  0.17920,  0.00000,  0.00000,  1.00000,  1,  100.0,  463.750,  139.130
5319,  '1',  78.840,  -29.170,  133.770,  -29.170,  1.01000,  0,  315.360,  0.00000,  0.25070,  0.00000,  0.00000,  1.00000,  1,  100.0,  262.800,  78.840
5320,  '1',  78.840,  -29.170,  133.770,  -29.170,  1.01000,  0,  315.360,  0.00000,  0.28140,  0.00000,  0.00000,  1.00000,  1,  100.0,  262.800,  78.840
5321,  '1',  78.840,  -29.170,  133.770,  -29.170,  1.01000,  0,  315.360,  0.00000,  0.12810,  0.00000,  0.00000,  1.00000,  1,  100.0,  262.800,  78.840
5324,  '1',  204.530,  39.878,  144.590,  -31.530,  1.04000,  0,  340.880,  0.00000,  0.21670,  0.00000,  0.00000,  1.00000,  1,  100.0,  284.070,  85.220
5325,  '1',  204.530,  41.349,  144.590,  -31.530,  1.04000,  0,  340.880,  0.00000,  0.15030,  0.00000,  0.00000,  1.00000,  1,  100.0,  284.070,  85.220
5326,  '1',  204.530,  112.350,  144.590,  -31.530,  1.04000,  0,  340.880,  0.00000,  0.18810,  0.00000,  0.00000,  1.00000,  1,  100.0,  284.070,  85.220
5343,  '1',  61.820,  21.641,  79.667,  -3.430,  1.04000,  0,  84.000,  0.00000,  0.24140,  0.00000,  0.00000,  1.00000,  1,  100.0,  207.500,  0.000
5360,  '1',  357.431,  -134.427,  469.730,  -122.980,  1.01000,  0,  1209.60,  0.00000,  0.25510,  0.00000,  0.00000,  1.00000,  1,  100.0,  1008.00,  302.400
5364,  '1',  123.730,  -23.680,  108.590,  -23.680,  1.00000,  0,  256.000,  0.00000,  0.13030,  0.00000,  0.00000,  1.00000,  1,  100.0,  213.330,  64.000
5365,  '1',  123.730,  -23.680,  108.590,  -23.680,  1.00000,  0,  256.000,  0.00000,  0.11650,  0.00000,  0.00000,  1.00000,  1,  100.0,  213.330,  64.000
5366,  '1',  123.730,  -23.680,  108.590,  -23.680,  1.00000,  0,  256.000,  0.00000,  0.15490,  0.00000,  0.00000,  1.00000,  1,  100.0,  213.330,  64.000
5367,  '1',  123.730,  -23.680,  108.590,  -23.680,  1.00000,  0,  256.000,  0.00000,  0.10020,  0.00000,  0.00000,  1.00000,  1,  100.0,  213.330,  64.000
5368,  '1',  123.730,  -23.680,  108.590,  -23.680,  1.00000,  0,  256.000,  0.00000,  0.36180,  0.00000,  0.00000,  1.00000,  1,  100.0,  213.330,  64.000
5369,  '1',  123.730,  -23.680,  108.590,  -23.680,  1.00000,  0,  256.000,  0.00000,  0.24440,  0.00000,  0.00000,  1.00000,  1,  100.0,  213.330,  64.000
5382,  '1',  121.220,  68.544,  106.380,  -23.200,  1.04000,  0,  250.800,  0.00000,  0.24770,  0.00000,  0.00000,  1.00000,  1,  100.0,  209.000,  62.700
5383,  '1',  121.220,  60.275,  106.380,  -23.200,  1.04000,  0,  250.800,  0.00000,  0.39820,  0.00000,  0.00000,  1.00000,  1,  100.0,  209.000,  62.700
5399,  '1',  47.711,  -1.333,  35.270,  -23.850,  1.04000,  0,  198.720,  0.00000,  1.00000,  0.00000,  0.00000,  1.00000,  1,  100.0,  165.600,  49.680
5403,  '1',  0.000,  45.500,  45.500,  -9.920,  1.03000,  0,  107.280,  0.00000,  0.19850,  0.00000,  0.00000,  1.00000,  0,  100.0,  89.400,  26.820
5404,  '1',  0.000,  45.500,  45.500,  -9.920,  1.03000,  0,  107.280,  0.00000,  0.13470,  0.00000,  0.00000,  1.00000,  0,  100.0,  89.400,  26.820
5405,  '1',  0.000,  45.500,  45.500,  -9.920,  1.03000,  0,  107.280,  0.00000,  0.14170,  0.00000,  0.00000,  1.00000,  0,  100.0,  89.400,  26.820
5406,  '1',  0.000,  45.500,  45.500,  -9.920,  1.03000,  0,  107.280,  0.00000,  0.12270,  0.00000,  0.00000,  1.00000,  0,  100.0,  89.400,  26.820
5415,  '1',  36.600,  -13.540,  62.100,  -13.540,  1.00000,  0,  146.400,  0.00000,  0.14030,  0.00000,  0.00000,  1.00000,  1,  100.0,  122.000,  36.600
5416,  '1',  36.600,  -13.540,  62.100,  -13.540,  1.00000,  0,  146.400,  0.00000,  0.26480,  0.00000,  0.00000,  1.00000,  1,  100.0,  122.000,  36.600
5417,  '1',  36.600,  -13.540,  62.100,  -13.540,  1.00000,  0,  146.400,  0.00000,  0.16960,  0.00000,  0.00000,  1.00000,  1,  100.0,  122.000,  36.600
5418,  '1',  35.640,  -13.190,  60.470,  -13.190,  1.00000,  0,  142.560,  0.00000,  0.34000,  0.00000,  0.00000,  1.00000,  1,  100.0,  118.800,  35.640
5419,  '1',  35.640,  -13.190,  60.470,  -13.190,  1.00000,  0,  142.560,  0.00000,  0.16420,  0.00000,  0.00000,  1.00000,  1,  100.0,  118.800,  35.640
5444,  '1',  604.980,  -223.840,  1026.440,  -223.840,  1.01000,  0,  2419.92,  0.00000,  0.34260,  0.00000,  0.00000,  1.00000,  1,  100.0,  2016.60,  604.980
6006,  '1',  123.540,  10.581,  108.420,  -23.640,  1.04000,  0,  255.600,  0.00000,  0.18770,  0.00000,  0.00000,  1.00000,  1,  100.0,  213.000,  63.900
6007,  '1',  306.720,  17.628,  216.830,  -47.290,  1.04000,  0,  511.200,  0.00000,  0.13420,  0.00000,  0.00000,  1.00000,  1,  100.0,  426.000,  127.800
6008,  '1',  59.500,  9.842,  100.950,  -22.010,  1.04000,  0,  238.000,  0.00000,  0.20160,  0.00000,  0.00000,  1.00000,  1,  100.0,  198.330,  59.500
6009,  '1',  59.500,  5.791,  100.950,  -22.010,  1.04000,  0,  238.000,  0.00000,  0.18430,  0.00000,  0.00000,  1.00000,  1,  100.0,  198.330,  59.500
6010,  '1',  59.500,  7.992,  100.950,  -22.010,  1.04000,  0,  238.000,  0.00000,  0.15620,  0.00000,  0.00000,  1.00000,  1,  100.0,  198.330,  59.500
6042,  '1',  95.396,  7.894,  122.908,  -5.290,  1.04000,  0,  129.600,  0.00000,  0.18770,  0.00000,  0.00000,  1.00000,  1,  100.0,  320.200,  0.000
6048,  '1',  0.000,  0.000,  1.730,  -0.380,  1.04000,  0,  4.080,  0.00000,  0.11720,  0.00000,  0.00000,  1.00000,  0,  100.0,  3.400,  1.020
6049,  '1',  0.000,  4.890,  4.890,  -1.070,  1.04000,  0,  11.520,  0.00000,  0.18260,  0.00000,  0.00000,  1.00000,  0,  100.0,  9.600,  2.880
6050,  '1',  0.000,  0.000,  2.240,  -0.490,  1.04000,  0,  5.280,  0.00000,  0.36280,  0.00000,  0.00000,  1.00000,  0,  100.0,  4.400,  1.320
6052,  '1',  0.000,  29.220,  29.220,  -6.370,  1.04000,  0,  68.880,  0.00000,  0.12090,  0.00000,  0.00000,  1.00000,  0,  100.0,  57.400,  17.220
6069,  '1',  54.410,  -12.134,  92.320,  -20.130,  1.03000,  0,  217.640,  0.00000,  0.22480,  0.00000,  0.00000,  1.00000,  1,  100.0,  181.370,  54.410
6070,  '1',  54.410,  -5.055,  92.320,  -20.130,  1.03000,  0,  217.640,  0.00000,  0.24660,  0.00000,  0.00000,  1.00000,  1,  100.0,  181.370,  54.410
6071,  '1',  54.410,  -14.809,  92.320,  -20.130,  1.03000,  0,  217.640,  0.00000,  0.15280,  0.00000,  0.00000,  1.00000,  1,  100.0,  181.370,  54.410
6072,  '1',  54.410,  -5.910,  92.320,  -20.130,  1.03000,  0,  217.640,  0.00000,  0.19250,  0.00000,  0.00000,  1.00000,  1,  100.0,  181.370,  54.410
6073,  '1',  54.410,  -9.126,  92.320,  -20.130,  1.03000,  0,  217.640,  0.00000,  0.14260,  0.00000,  0.00000,  1.00000,  1,  100.0,  181.370,  54.410
6074,  '1',  54.410,  -9.549,  92.320,  -20.130,  1.03000,  0,  217.640,  0.00000,  0.11150,  0.00000,  0.00000,  1.00000,  1,  100.0,  181.370,  54.410
6078,  '1',  169.000,  -68.730,  262.510,  -68.730,  1.00000,  0,  676.000,  0.00000,  0.28900,  0.00000,  0.00000,  1.00000,  1,  100.0,  563.330,  169.000
6079,  '1',  169.000,  -68.730,  262.510,  -68.730,  1.00000,  0,  676.000,  0.00000,  0.25330,  0.00000,  0.00000,  1.00000,  1,  100.0,  563.330,  169.000
6080,  '1',  169.000,  -68.730,  262.510,  -68.730,  1.00000,  0,  676.000,  0.00000,  0.32510,  0.00000,  0.00000,  1.00000,  1,  100.0,  563.330,  169.000
6104,  '1',  0.000,  30.790,  30.790,  -6.720,  1.04000,  0,  72.600,  0.00000,  0.21100,  0.00000,  0.00000,  1.00000,  0,  100.0,  60.500,  18.150
6105,  '1',  0.000,  30.790,  30.790,  -6.720,  1.04000,  0,  72.600,  0.00000,  0.31280,  0.00000,  0.00000,  1.00000,  0,  100.0,  60.500,  18.150
6106,  '1',  36.300,  61.590,  61.590,  -13.430,  1.04000,  0,  145.200,  0.00000,  0.12010,  0.00000,  0.00000,  1.00000,  1,  100.0,  121.000,  36.300
6110,  '1',  177.180,  19.627,  275.220,  -72.050,  1.04000,  0,  708.720,  0.00000,  0.16800,  0.00000,  0.00000,  1.00000,  1,  100.0,  590.600,  177.180
...
 0 /End of Generator data, Begin Branch data
1004,  1023,  '99',  0.01138,  0.34458,  0.00000,  0.00,  0.00,  0.00,  0.00000,  0.000,  0.00000,  0.00000,  0.00000,  0.00000,  1
1004,  1057,  '99',  0.65298,  4.31938,  0.00000,  0.00,  0.00,  0.00,  0.00000,  0.000,  0.00000,  0.00000,  0.00000,  0.00000,  1
1004,  2013,  '99',  -0.03314,  2.00702,  0.00000,  0.00,  0.00,  0.00,  0.00000,  0.000,  0.00000,  0.00000,  0.00000,  0.00000,  1
1004,  2057,  '99',  2.09689,  4.26840,  0.00000,  0.00,  0.00,  0.00,  0.00000,  0.000,  0.00000,  0.00000,  0.00000,  0.00000,  1
1004,  2062,  '99',  0.89286,  4.09720,  0.00000,  0.00,  0.00,  0.00,  0.00000,  0.000,  0.00000,  0.00000,  0.00000,  0.00000,  1
1004,  2095,  '99',  0.17812,  4.64857,  0.00000,  0.00,  0.00,  0.00,  0.00000,  0.000,  0.00000,  0.00000,  0.00000,  0.00000,  1
1004,  2100,  '99',  0.03758,  0.54293,  0.00000,  0.00,  0.00,  0.00,  0.00000,  0.000,  0.00000,  0.00000,  0.00000,  0.00000,  1
1004,  2123,  '99',  0.43761,  2.69431,  0.00000,  0.00,  0.00,  0.00,  0.00000,  0.000,  0.00000,  0.00000,  0.00000,  0.00000,  1
1004,  3034,  '99',  0.36774,  2.82169,  0.00000,  0.00,  0.00,  0.00,  0.00000,  0.000,  0.00000,  0.00000,  0.00000,  0.00000,  1
1004,  3039,  '99',  0.03292,  0.33686,  0.00000,  0.00,  0.00,  0.00,  0.00000,  0.000,  0.00000,  0.00000,  0.00000,  0.00000,  1
1004,  3048,  '99',  0.04574,  0.33788,  0.00000,  0.00,  0.00,  0.00,  0.00000,  0.000,  0.00000,  0.00000,  0.00000,  0.00000,  1
1004,  3081,  '99',  0.04017,  0.42633,  0.00000,  0.00,  0.00,  0.00,  0.00000,  0.000,  0.00000,  0.00000,  0.00000,  0.00000,  1
1004,  3086,  '99',  0.55159,  3.91672,  0.00000,  0.00,  0.00,  0.00,  0.00000,  0.000,  0.00000,  0.00000,  0.00000,  0.00000,  1
1004,  3087,  '99',  0.55159,  3.91672,  0.00000,  0.00,  0.00,  0.00,  0.00000,  0.000,  0.00000,  0.00000,  0.00000,  0.00000,  1
1004,  3098,  '99',  0.02952,  0.46465,  0.00000,  0.00,  0.00,  0.00,  0.00000,  0.000,  0.00000,  0.00000,  0.00000,  0.00000,  1
1004,  3110,  '99',  0.06205,  0.50999,  0.00000,  0.00,  0.00,  0.00,  0.00000,  0.000,  0.00000,  0.00000,  0.00000,  0.00000,  1
1004,  3118,  '99',  0.21176,  2.08640,  0.00000,  0.00,  0.00,  0.00,  0.00000,  0.000,  0.00000,  0.00000,  0.00000,  0.00000,  1
1004,  3129,  '99',  1.38758,  4.35710,  0.00000,  0.00,  0.00,  0.00,  0.00000,  0.000,  0.00000,  0.00000,  0.00000,  0.00000,  1
1009,  1012,  '99',  0.31834,  2.52914,  0.00000,  0.00,  0.00,  0.00,  0.00000,  0.000,  0.00000,  0.00000,  0.00000,  0.00000,  1
1009,  1033,  '99',  0.08822,  0.79192,  0.00000,  0.00,  0.00,  0.00,  0.00000,  0.000,  0.00000,  0.00000,  0.00000,  0.00000,  1
1009,  1046,  '99',  0.20056,  1.76068,  0.00000,  0.00,  0.00,  0.00,  0.00000,  0.000,  0.00000,  0.00000,  0.00000,  0.00000,  1
1009,  1070,  '99',  -0.01112,  0.43787,  0.00000,  0.00,  0.00,  0.00,  0.00000,  0.000,  0.00000,  0.00000,  0.00000,  0.00000,  1
1009,  1082,  '99',  0.10523,  0.49972,  0.00000,  0.00,  0.00,  0.00,  0.00000,  0.000,  0.00000,  0.00000,  0.00000,  0.00000,  1
1009,  1088,  '99',  0.64810,  2.74326,  0.00000,  0.00,  0.00,  0.00,  0.00000,  0.000,  0.00000,  0.00000,  0.00000,  0.00000,  1
1012,  1046,  '99',  0.16964,  0.61111,  0.00000,  0.00,  0.00,  0.00,  0.00000,  0.000,  0.00000,  0.00000,  0.00000,  0.00000,  1
1012,  1070,  '99',  0.10662,  1.15623,  0.00000,  0.00,  0.00,  0.00,  0.00000,  0.000,  0.00000,  0.00000,  0.00000,  0.00000,  1
1012,  1082,  '99',  0.44188,  1.46841,  0.00000,  0.00,  0.00,  0.00,  0.00000,  0.000,  0.00000,  0.00000,  0.00000,  0.00000,  1
1012,  -3051,  '1',  0.05710,  0.24977,  0.03804,  149.00,  0.00,  0.00,  0.00000,  0.000,  0.00000,  0.00000,  0.00000,  0.00000,  1
1021,  1026,  '99',  0.01506,  0.84156,  0.00000,  0.00,  0.00,  0.00,  0.00000,  0.000,  0.00000,  0.00000,  0.00000,  0.00000,  1
1021,  1063,  '99',  0.12423,  2.67745,  0.00000,  0.00,  0.00,  0.00,  0.00000,  0.000,  0.00000,  0.00000,  0.00000,  0.00000,  1
1021,  1084,  '99',  0.01195,  0.19762,  0.00000,  0.00,  0.00,  0.00,  0.00000,  0.000,  0.00000,  0.00000,  0.00000,  0.00000,  1
1021,  3019,  '99',  0.08283,  2.97913,  0.00000,  0.00,  0.00,  0.00,  0.00000,  0.000,  0.00000,  0.00000,  0.00000,  0.00000,  1
1021,  3112,  '99',  0.47472,  2.43305,  0.00000,  0.00,  0.00,  0.00,  0.00000,  0.000,  0.00000,  0.00000,  0.00000,  0.00000,  1
1021,  3113,  '99',  0.47472,  2.43305,  0.00000,  0.00,  0.00,  0.00,  0.00000,  0.000,  0.00000,  0.00000,  0.00000,  0.00000,  1
1023,  2100,  '99',  0.03614,  3.65091,  0.00000,  0.00,  0.00,  0.00,  0.00000,  0.000,  0.00000,  0.00000,  0.00000,  0.00000,  1
1023,  3098,  '99',  0.01559,  3.06607,  0.00000,  0.00,  0.00,  0.00,  0.00000,  0.000,  0.00000,  0.00000,  0.00000,  0.00000,  1
1023,  3110,  '99',  0.08542,  0.92460,  0.00000,  0.00,  0.00,  0.00,  0.00000,  0.000,  0.00000,  0.00000,  0.00000,  0.00000,  1
1026,  1035,  '99',  0.58834,  3.46168,  0.00000,  0.00,  0.00,  0.00,  0.00000,  0.000,  0.00000,  0.00000,  0.00000,  0.00000,  1
1026,  1042,  '99',  0.52252,  3.53040,  0.00000,  0.00,  0.00,  0.00,  0.00000,  0.000,  0.00000,  0.00000,  0.00000,  0.00000,  1
1026,  1063,  '99',  0.06185,  1.91654,  0.00000,  0.00,  0.00,  0.00,  0.00000,  0.000,  0.00000,  0.00000,  0.00000,  0.00000,  1
1026,  1066,  '99',  0.77999,  4.77106,  0.00000,  0.00,  0.00,  0.00,  0.00000,  0.000,  0.00000,  0.00000,  0.00000,  0.00000,  1
1026,  1084,  '99',  0.07498,  0.50266,  0.00000,  0.00,  0.00,  0.00,  0.00000,  0.000,  0.00000,  0.00000,  0.00000,  0.00000,  1
1033,  1039,  '99',  0.07188,  0.91929,  0.00000,  0.00,  0.00,  0.00,  0.00000,  0.000,  0.00000,  0.00000,  0.00000,  0.00000,  1
1033,  1070,  '99',  0.19357,  1.23701,  0.00000,  0.00,  0.00,  0.00,  0.00000,  0.000,  0.00000,  0.00000,  0.00000,  0.00000,  1
1033,  1081,  '99',  0.00300,  0.03100,  0.00000,  0.00,  0.00,  0.00,  0.00000,  0.000,  0.00000,  0.00000,  0.00000,  0.00000,  1
1033,  1082,  '99',  0.11872,  0.39889,  0.00000,  0.00,  0.00,  0.00,  0.00000,  0.000,  0.00000,  0.00000,  0.00000,  0.00000,  1
1033,  1088,  '99',  0.01466,  0.51330,  0.00000,  0.00,  0.00,  0.00,  0.00000,  0.000,  0.00000,  0.00000,  0.00000,  0.00000,  1
1033,  3050,  '1',  0.01390,  0.13600,  0.26200,  647.00,  0.00,  0.00,  0.00000,  0.000,  0.00000,  0.00000,  0.00000,  0.00000,  1
1035,  1042,  '99',  0.00557,  0.69424,  0.00000,  0.00,  0.00,  0.00,  0.00000,  0.000,  0.00000,  0.00000,  0.00000,  0.00000,  1
1035,  1057,  '99',  0.16775,  2.68871,  0.00000,  0.00,  0.00,  0.00,  0.00000,  0.000,  0.00000,  0.00000,  0.00000,  0.00000,  1
1035,  1063,  '99',  0.14985,  1.30286,  0.00000,  0.00,  0.00,  0.00,  0.00000,  0.000,  0.00000,  0.00000,  0.00000,  0.00000,  1
1035,  1066,  '99',  0.03220,  0.98631,  0.00000,  0.00,  0.00,  0.00,  0.00000,  0.000,  0.00000,  0.00000,  0.00000,  0.00000,  1
1035,  1084,  '99',  0.88207,  2.76084,  0.00000,  0.00,  0.00,  0.00,  0.00000,  0.000,  0.00000,  0.00000,  0.00000,  0.00000,  1
1035,  1088,  '99',  0.05318,  0.94593,  0.00000,  0.00,  0.00,  0.00,  0.00000,  0.000,  0.00000,  0.00000,  0.00000,  0.00000,  1
1039,  1048,  '99',  0.06033,  3.39556,  0.00000,  0.00,  0.00,  0.00,  0.00000,  0.000,  0.00000,  0.00000,  0.00000,  0.00000,  1
1039,  1053,  '99',  -0.03193,  4.54432,  0.00000,  0.00,  0.00,  0.00,  0.00000,  0.000,  0.00000,  0.00000,  0.00000,  0.00000,  1
1039,  1082,  '99',  0.01231,  0.17258,  0.00000,  0.00,  0.00,  0.00,  0.00000,  0.000,  0.00000,  0.00000,  0.00000,  0.00000,  1
1039,  1088,  '99',  0.64489,  3.19567,  0.00000,  0.00,  0.00,  0.00,  0.00000,  0.000,  0.00000,  0.00000,  0.00000,  0.00000,  1
1042,  1057,  '99',  0.00443,  1.89267,  0.00000,  0.00,  0.00,  0.00,  0.00000,  0.000,  0.00000,  0.00000,  0.00000,  0.00000,  1
1042,  1063,  '99',  0.11229,  1.28466,  0.00000,  0.00,  0.00,  0.00,  0.00000,  0.000,  0.00000,  0.00000,  0.00000,  0.00000,  1
1042,  1066,  '99',  -0.01717,  0.58594,  0.00000,  0.00,  0.00,  0.00,  0.00000,  0.000,  0.00000,  0.00000,  0.00000,  0.00000,  1
1042,  1084,  '99',  0.80655,  2.74013,  0.00000,  0.00,  0.00,  0.00,  0.00000,  0.000,  0.00000,  0.00000,  0.00000,  0.00000,  1
1042,  1088,  '99',  0.26131,  3.60022,  0.00000,  0.00,  0.00,  0.00,  0.00000,  0.000,  0.00000,  0.00000,  0.00000,  0.00000,  1
1046,  1070,  '99',  0.06464,  0.80460,  0.00000,  0.00,  0.00,  0.00,  0.00000,  0.000,  0.00000,  0.00000,  0.00000,  0.00000,  1
1046,  1082,  '99',  0.29513,  1.02435,  0.00000,  0.00,  0.00,  0.00,  0.00000,  0.000,  0.00000,  0.00000,  0.00000,  0.00000,  1
1046,  3009,  '1',  0.05654,  0.23454,  0.03980,  149.00,  0.00,  0.00,  0.00000,  0.000,  0.00000,  0.00000,  0.00000,  0.00000,  1
1048,  1049,  '99',  -0.00086,  0.36800,  0.00000,  0.00,  0.00,  0.00,  0.00000,  0.000,  0.00000,  0.00000,  0.00000,  0.00000,  1
1048,  1053,  '99',  0.00010,  0.27511,  0.00000,  0.00,  0.00,  0.00,  0.00000,  0.000,  0.00000,  0.00000,  0.00000,  0.00000,  1
1048,  1082,  '99',  0.43639,  1.93550,  0.00000,  0.00,  0.00,  0.00,  0.00000,  0.000,  0.00000,  0.00000,  0.00000,  0.00000,  1
1048,  1090,  '99',  0.07396,  0.48559,  0.00000,  0.00,  0.00,  0.00,  0.00000,  0.000,  0.00000,  0.00000,  0.00000,  0.00000,  1
1049,  1053,  '99',  -0.01336,  0.49226,  0.00000,  0.00,  0.00,  0.00,  0.00000,  0.000,  0.00000,  0.00000,  0.00000,  0.00000,  1
1049,  1082,  '99',  0.68564,  3.48468,  0.00000,  0.00,  0.00,  0.00,  0.00000,  0.000,  0.00000,  0.00000,  0.00000,  0.00000,  1
1049,  1090,  '99',  0.10845,  0.87252,  0.00000,  0.00,  0.00,  0.00,  0.00000,  0.000,  0.00000,  0.00000,  0.00000,  0.00000,  1
1053,  1081,  '99',  0.00299,  0.02991,  0.00000,  0.00,  0.00,  0.00,  0.00000,  0.000,  0.00000,  0.00000,  0.00000,  0.00000,  1
1053,  1082,  '99',  0.51956,  2.60365,  0.00000,  0.00,  0.00,  0.00,  0.00000,  0.000,  0.00000,  0.00000,  0.00000,  0.00000,  1
1053,  1090,  '99',  0.08283,  0.65205,  0.00000,  0.00,  0.00,  0.00,  0.00000,  0.000,  0.00000,  0.00000,  0.00000,  0.00000,  1
1057,  1063,  '99',  -0.05461,  1.46050,  0.00000,  0.00,  0.00,  0.00,  0.00000,  0.000,  0.00000,  0.00000,  0.00000,  0.00000,  1
...